   63

Si    0.0000001860   -0.0000003610    0.0000002625
Si    5.4694124414   -0.0000001203    0.0000001969
Si   -0.0000004922    5.4694122992   -0.0000007110
Si    5.4694124742    5.4694123539   -0.0000002078
Si    2.7387808178    2.7387805115   -0.0015328793
Si    8.2000437916    2.7387809381    0.0015321354
Si    2.7387811460    8.2000433540    0.0015326496
Si    8.2000434306    8.2000437369   -0.0015323761
Si    1.3679084006    1.3679076458    1.3679077880
Si    6.8375423095    1.3791649975    1.3791649975
Si    1.3791639802    6.8375418391    1.3791640349
Si    6.8348090583    6.8348085223    1.3733881279
Si    4.1040157808    4.1040155292    1.3733875701
Si    9.5596599619    4.1012823874    1.3791641771
Si    4.1012828359    9.5596589774    1.3791652491
Si    9.5709162306    9.5709159025    1.3679082803
Si    2.7387809053   -0.0015327808    2.7387808725
Si    8.2000436056    0.0015321792    2.7387809819
Si    2.7705992206    5.4728179599    2.7705999207
Si    8.1682244699    5.4660056541    2.7706006318
Si    5.4728191741    2.7706018350    2.7706015944
Si   -0.0015324636    2.7387801943    2.7387801615
Si    5.4660057744    8.1682227525    2.7706018788
Si    0.0015324417    8.2000432009    2.7387809600
Si    4.1040159448    1.3733878873    4.1040155510
Si    9.5596595900    1.3791645490    4.1012823437
Si    4.1879069896    6.7509144694    4.1879098009
Si    9.5654364158    6.8348087411    4.1040160871
Si    6.7509148522    4.1879120762    4.1879114964
Si    1.3733869794    4.1040150260    4.1040156057
Si    6.8348093974    9.5654356938    4.1040164808
Si    1.3791641333    9.5596596556    4.1012824749
Si   -0.0000004922   -0.0000001203    5.4694121570
Si    5.4694125399    0.0000000438    5.4694123102
Si   -0.0000000656    5.4694119929    5.4694124414
Si    2.7705998551    2.7705999536    5.4728182552
Si    8.1682241526    2.7706012990    5.4660053915
Si    2.7705994722    8.1682241089    5.4660063651
Si    8.1682230916    8.1682221727    5.4728197648
Si    1.3791641771    1.3791641552    6.8375420360
Si    6.8348092880    1.3733884233    6.8348083364
Si    1.3733870888    6.8348087192    6.8348092771
Si    6.7509105424    6.7509090219    6.7509085405
Si    4.1879079194    4.1879098774    6.7509143600
Si    9.5654361861    4.1040159120    6.8348092005
Si    4.1040160105    9.5654361095    6.8348089599
Si    9.5596592728    9.5596592290    6.8375419375
Si    2.7387810475    0.0015327699    8.2000436603
Si    8.2000436494   -0.0015323980    8.2000434634
Si    2.7706000301    5.4660060150    8.1682240542
Si    8.1682227525    5.4728201695    8.1682218883
Si    5.4660062119    2.7706017256    8.1682228509
Si    0.0015324746    2.7387806428    8.2000435728
Si    5.4728198851    8.1682215711    8.1682213195
Si   -0.0015326277    8.2000439557    8.2000439775
Si    4.1012830547    1.3791649865    9.5596591743
Si    9.5709164275    1.3679077443    9.5709162525
Si    4.1040161089    6.8348089708    9.5654357485
Si    9.5596589009    6.8375421782    9.5596590978
Si    6.8348095287    4.1040165684    9.5654355735
Si    1.3791643193    4.1012822343    9.5596596228
Si    6.8375417406    9.5596589118    9.5596587587
Si    1.3679084772    9.5709162088    9.5709162963
   63

Si    0.0002035770    0.0002030563   -0.0002032804
Si    5.4650358730    0.0154873752   -0.0154874243
Si    0.0154871526    5.4650358355   -0.0154880913
Si    5.4695176296    5.4695176271   -0.0042191181
Si    2.7414419335    2.7414416796   -0.0124901067
Si    8.2021764544    2.7385048624   -0.0014259502
Si    2.7385051017    8.2021761478   -0.0014256377
Si    8.1986545800    8.1986548810    0.0021893846
Si    1.3717095053    1.3717088291    1.3624844021
Si    6.8409710818    1.3758394532    1.3724783210
Si    1.3758387763    6.8409708288    1.3724775548
Si    6.8314465093    6.8314462037    1.3758286027
Si    4.1038440452    4.1038438669    1.3681798638
Si    9.5666873517    4.1035052373    1.3721367140
Si    4.1035055680    9.5666865636    1.3721375084
Si    9.5703418596    9.5703416127    1.3684825465
Si    2.7385048794    0.0014253336    2.7366480499
Si    8.1986546686   -0.0021896077    2.7401697697
Si    2.7591655615    5.4694170210    2.7605759368
Si    8.1663769872    5.4618515997    2.7724478500
Si    5.4694178739    2.7591675134    2.7605772229
Si    0.0014256456    2.7385042522    2.7366474908
Si    5.4618515996    8.1663757123    2.7724488404
Si   -0.0021893242    8.1986544393    2.7401697268
Si    4.1018488164    1.3776740369    4.1052374057
Si    9.5663460727    1.3758391095    4.0978534718
Si    4.1551571052    6.7561430077    4.1826811893
Si    9.5629958258    6.8314463387    4.1073784187
Si    6.7561433277    4.1551609217    4.1826824344
Si    1.3776733149    4.1018482196    4.1052374054
Si    6.8314466729    9.5629953238    4.1073787654
Si    1.3758389321    9.5663460650    4.0978536005
Si    0.0154871473    0.0154873359    5.4737886181
Si    5.4695175957    0.0042190980    5.4693070763
Si    0.0042189519    5.4695172975    5.4693071368
Si    2.8174223643    2.8174225020    5.4785784227
Si    8.1782480292    2.7591671240    5.4694066001
Si    2.7591658053    8.1782479435    5.4694073825
Si    8.1663758550    8.1663752452    5.4769736227
Si    1.4078569617    1.4078569346    6.8286304883
Si    6.8335871087    1.3776745441    6.8369754674
Si    1.3776735552    6.8335866630    6.8369761882
Si    6.7561399684    6.7561388433    6.7836604884
Si    4.3103818739    4.3103833161    6.6284407721
Si    9.5706439107    4.1038441424    6.8349807397
Si    4.1038442016    9.5706438629    6.8349805619
Si    9.5666868171    9.5666867550    6.8353191165
Si    2.7414421868    0.0124900994    8.1973823849
Si    8.2021762834    0.0014257138    8.2003194291
Si    2.8174227043    5.4602455307    8.1214015450
Si    8.1782470271    5.4694186965    8.1796562623
Si    5.4602457748    2.8174240122    8.1214006900
Si    0.0124898250    2.7414418082    8.1973823576
Si    5.4694183597    8.1782460683    8.1796558113
Si    0.0014256517    8.2021765792    8.2003198018
Si    4.1101943432    1.4078575984    9.5309665599
Si    9.5763397611    1.3717089668    9.5671149593
Si    4.1018489700    6.8335869329    9.5611496696
Si    9.5663456035    6.8409710815    9.5629845425
Si    6.8335874174    4.1018494373    9.5611496098
Si    1.4078570751    4.1101936772    9.5309669089
Si    6.8409705968    9.5663455359    9.5629842479
Si    1.3717096604    9.5763396235    9.5671149349
   63

Si    0.0005736224    0.0005731204   -0.0005734348
Si    5.4605402420    0.0264417663   -0.0264419057
Si    0.0264416508    5.4605402798   -0.0264423997
Si    5.4696414225    5.4696415046   -0.0063011812
Si    2.7445222614    2.7445220451   -0.0230189461
Si    8.2038148073    2.7373081076   -0.0037241037
Si    2.7373083694    8.2038145947   -0.0037239360
Si    8.1965274435    8.1965277408    0.0077795081
Si    1.3754007985    1.3754001786    1.3563779918
Si    6.8440837169    1.3718223944    1.3675862003
Si    1.3718219618    6.8440836199    1.3675855750
Si    6.8278398867    6.8278397466    1.3820875700
Si    4.1036866869    4.1036865613    1.3650055434
Si    9.5675500057    4.1060629501    1.3712740073
Si    4.1060631961    9.5675493586    1.3712746025
Si    9.5700798001    9.5700796114    1.3687445309
Si    2.7373081603    0.0037235078    2.7350095824
Si    8.1965274701   -0.0077797500    2.7422968610
Si    2.7490819104    5.4673163869    2.7531872269
Si    8.1548704009    5.4546118109    2.7839542464
Si    5.4673169804    2.7490833867    2.7531882348
Si    0.0037238161    2.7373075932    2.7350091322
Si    5.4546117244    8.1548694437    2.7839550526
Si   -0.0077794515    8.1965273668    2.7422968031
Si    4.1008367077    1.3808166630    4.1056907226
Si    9.5712380543    1.3718221258    4.0947407653
Si    4.1305103456    6.7414569036    4.1973672407
Si    9.5567367758    6.8278398214    4.1109848853
Si    6.7414571785    4.1305132505    4.1973681625
Si    1.3808160744    4.1008363421    4.1056906829
Si    6.8278399244    9.5567364317    4.1109851981
Si    1.3718221195    9.5712379940    4.0947408921
Si    0.0264416418    0.0264416988    5.4782841720
Si    5.4696413172    0.0063012645    5.4691832269
Si    0.0063010921    5.4696411976    5.4691832367
Si    2.8632345344    2.8632347003    5.4798345467
Si    8.1856366620    2.7490831026    5.4715074278
Si    2.7490821485    8.1856365463    5.4715080730
Si    8.1548694454    8.1548690573    5.4842132705
Si    1.4343017352    1.4343017044    6.8195001067
Si    6.8331335587    1.3808171495    6.8379875780
Si    1.3808164087    6.8331332013    6.8379881409
Si    6.7414545015    6.7414536602    6.8083087292
Si    4.4361471769    4.4361482488    6.5026757323
Si    9.5738182443    4.1036867597    6.8351379570
Si    4.1036867907    9.5738182172    6.8351378243
Si    9.5675495820    9.5675495068    6.8327614244
Si    2.7445225316    0.0230190121    8.1943019423
Si    8.2038146156    0.0037238862    8.2015161050
Si    2.8632349928    5.4589891793    8.0755893749
Si    8.1856359456    5.4673176789    8.1897404266
Si    5.4589894572    2.8632360226    8.0755887699
Si    0.0230187528    2.7445221719    8.1943019582
Si    5.4673173046    8.1856351465    8.1897400602
Si    0.0037239444    8.2038149039    8.2015163762
Si    4.1193245386    1.4343022478    9.5045219086
Si    9.5824461338    1.3754003446    9.5634235308
Si    4.1008368537    6.8331334844    9.5580070943
Si    9.5712377430    6.8440838106    9.5670015299
Si    6.8331339163    4.1008373267    9.5580071172
Si    1.4343018280    4.1193239836    9.5045221861
Si    6.8440832920    9.5712376190    9.5670012673
Si    1.3754010100    9.5824460545    9.5634234576
   63

Si    0.0008940708    0.0008935769   -0.0008939301
Si    5.4576875520    0.0296266948   -0.0296268730
Si    0.0296266254    5.4576876222   -0.0296272926
Si    5.4694400201    5.4694401386   -0.0060351386
Si    2.7467112705    2.7467110704   -0.0292834650
Si    8.2042058335    2.7348512586   -0.0042986385
Si    2.7348515302    8.2042056614   -0.0042985331
Si    8.1943464119    8.1943467076    0.0130828667
Si    1.3776856034    1.3776850079    1.3521452476
Si    6.8450664906    1.3689668915    1.3665683035
Si    1.3689665642    6.8450664608    1.3665677390
Si    6.8248651876    6.8248651187    1.3895559622
Si    4.1034461981    4.1034460951    1.3652268199
Si    9.5616150226    4.1086864614    1.3772089678
Si    4.1086866710    9.5616144362    1.3772094772
Si    9.5700923815    9.5700922179    1.3687319171
Si    2.7348513267    0.0042980515    2.7346185068
Si    8.1943464118   -0.0130831167    2.7444778732
Si    2.7427660427    5.4667730167    2.7506288115
Si    8.1368231409    5.4472080376    2.8020014246
Si    5.4667734984    2.7427673141    2.7506296996
Si    0.0042983581    2.7348507855    2.7346181036
Si    5.4472079137    8.1368223205    2.8020021515
Si   -0.0130828117    8.1943463627    2.7444778088
Si    4.1006636831    1.3828585035    4.1060862905
Si    9.5722558912    1.3689666553    4.0937579609
Si    4.1195261698    6.7089237375    4.2299003841
Si    9.5492683479    6.8248651676    4.1139595172
Si    6.7089239930    4.1195286819    4.2299011666
Si    1.3828579724    4.1006634171    4.1060862337
Si    6.8248651710    9.5492680719    4.1139598155
Si    1.3689667227    9.5722558082    4.0937580868
Si    0.0296266148    0.0296266152    5.4811368288
Si    5.4694398840    0.0060352664    5.4693846051
Si    0.0060350827    5.4694398413    5.4693845930
Si    2.8968286803    2.8968288584    5.4797930672
Si    8.1881950442    2.7427670754    5.4720508814
Si    2.7427662784    8.1881949155    5.4720514675
Si    8.1368222615    8.1368219690    5.4916169832
Si    1.4517897374    1.4517897049    6.8126440717
Si    6.8327378904    1.3828589811    6.8381606035
Si    1.3828583472    6.8327375711    6.8381610983
Si    6.7089216100    6.7089208910    6.8192935432
Si    4.5686095712    4.5686104836    6.3702134513
Si    9.5735969734    4.1034462604    6.8353783851
Si    4.1034462792    9.5735969552    6.8353782718
Si    9.5616146466    9.5616145657    6.8301379219
Si    2.7467115480    0.0292835626    8.1921128838
Si    8.2042056329    0.0042984291    8.2039729199
Si    2.8968291898    5.4590305608    8.0419952289
Si    8.1881944509    5.4667741435    8.1960565153
Si    5.4590308532    2.8968300997    8.0419947316
Si    0.0292833097    2.7467111963    8.1921129184
Si    5.4667737529    8.1881937207    8.1960561854
Si    0.0042985391    8.2042059180    8.2039731474
Si    4.1261804934    1.4517901966    9.4870339590
Si    9.5866788618    1.3776851860    9.5611386675
Si    4.1006638259    6.8327378598    9.5559652757
Si    9.5722556480    6.8450666247    9.5698570021
Si    6.8327382691    4.1006643013    9.5559653342
Si    1.4517898212    4.1261799862    9.4870342058
Si    6.8450660916    9.5722554997    9.5698567532
Si    1.3776858392    9.5866788076    9.5611385733
   63

Si    0.0011431233    0.0011426311   -0.0011429925
Si    5.4582079214    0.0265939381   -0.0265941244
Si    0.0265938784    5.4582079984   -0.0265945284
Si    5.4688329434    5.4688330696   -0.0039317467
Si    2.7479860120    2.7479858153   -0.0308671057
Si    8.2041697633    2.7317693227   -0.0030588325
Si    2.7317695963    8.2041695996   -0.0030587401
Si    8.1931624140    8.1931627093    0.0163877102
Si    1.3785699205    1.3785693300    1.3504366635
Si    6.8433563641    1.3676681811    1.3680274657
Si    1.3676678759    6.8433563484    1.3680269139
Si    6.8232332212    6.8232331672    1.3953822234
Si    4.1030268102    4.1030267120    1.3679248013
Si    9.5527192673    4.1110200522    1.3861047184
Si    4.1110202541    9.5527186936    1.3861052097
Si    9.5701025515    9.5701023931    1.3687217403
Si    2.7317693940    0.0030582473    2.7346545666
Si    8.1931624082   -0.0163879619    2.7456618670
Si    2.7391864153    5.4682493752    2.7500087502
Si    8.1203600177    5.4429069362    2.8184645307
Si    5.4682498335    2.7391876438    2.7500096132
Si    0.0030585536    2.7317688582    2.7346541733
Si    5.4429068046    8.1203592261    2.8184652408
Si   -0.0163876556    8.1931623705    2.7456618013
Si    4.1012735227    1.3833326147    4.1059660539
Si    9.5707967164    1.3676679517    4.0954680809
Si    4.1132239564    6.6744692717    4.2643548452
Si    9.5434420793    6.8232332107    4.1155914695
Si    6.6744695231    4.1132263862    4.2643555985
Si    1.3833320957    4.1012732776    4.1059659935
Si    6.8232331932    9.5434418175    4.1155917647
Si    1.3676680345    9.5707966287    4.0954682066
Si    0.0265938674    0.0265938559    5.4806164524
Si    5.4688328009    0.0039318839    5.4699916767
Si    0.0039316978    5.4688327743    5.4699916600
Si    2.9113698103    2.9113699910    5.4791270719
Si    8.1888150985    2.7391874146    5.4705745404
Si    2.7391866505    8.1888149671    5.4705751141
Si    8.1203591543    8.1203588819    5.4959180718
Si    1.4578538395    1.4578538066    6.8097991331
Si    6.8328581059    1.3833330904    6.8375507640
Si    1.3833324790    6.8328577946    6.8375512446
Si    6.6744672017    6.6744665083    6.8255958903
Si    4.7105075583    4.7105084372    6.2283154880
Si    9.5708989932    4.1030268702    6.8357977603
Si    4.1030268865    9.5708989769    6.8357976511
Si    9.5527189013    9.5527188192    6.8278043331
Si    2.7479862910    0.0308672100    8.1908381319
Si    8.2041695608    0.0030586247    8.2070548488
Si    2.9113703305    5.4596965356    8.0274540989
Si    8.1888145310    5.4682504674    8.1996361891
Si    5.4596968311    2.9113712153    8.0274536242
Si    0.0308669584    2.7479859411    8.1908381704
Si    5.4682500734    8.1888138152    8.1996358668
Si    0.0030587456    8.2041698452    8.2070550671
Si    4.1290254152    1.4578542874    9.4809698680
Si    9.5883874425    1.3785695107    9.5602543382
Si    4.1012736649    6.8328580845    9.5554911690
Si    9.5707964874    6.8433565067    9.5711557060
Si    6.8328584890    4.1012741407    9.5554912350
Si    1.4578539214    4.1290249180    9.4809701083
Si    6.8433559706    9.5707963340    9.5711554600
Si    1.3785701614    9.5883873935    9.5602542396
   63

Si    0.0012709109    0.0012704184   -0.0012707784
Si    5.4607484013    0.0185913629   -0.0185915478
Si    0.0185913015    5.4607484770   -0.0185919545
Si    5.4680980734    5.4680981983   -0.0004951768
Si    2.7481276676    2.7481274703   -0.0282142809
Si    8.2040768416    2.7285533807   -0.0006282072
Si    2.7285536539    8.2040766765   -0.0006281126
Si    8.1930873949    8.1930876903    0.0171966703
Si    1.3784811682    1.3784805769    1.3512754967
Si    6.8400786164    1.3676095417    1.3704706743
Si    1.3676092328    6.8400785983    1.3704701204
Si    6.8233892038    6.8233891473    1.3979312743
Si    4.1023075870    4.1023074880    1.3713861008
Si    9.5448445134    4.1134815759    1.3939794730
Si    4.1134817792    9.5448439376    1.3939799674
Si    9.5702237367    9.5702235775    1.3686005562
Si    2.7285534514    0.0006276218    2.7347474901
Si    8.1930873902   -0.0171969217    2.7457368868
Si    2.7386177326    5.4700719927    2.7504962756
Si    8.1133170986    5.4422624535    2.8255074527
Si    5.4700724550    2.7386189684    2.7504971428
Si    0.0006279281    2.7285529147    2.7347470951
Si    5.4422623231    8.1133163021    2.8255081657
Si   -0.0171966156    8.1930873505    2.7457368213
Si    4.1030347571    1.3828829017    4.1066323855
Si    9.5683535100    1.3676093112    4.0987458297
Si    4.1114148473    6.6598566919    4.2789674258
Si    9.5408930297    6.8233891917    4.1154354893
Si    6.6598569440    4.1114172913    4.2789681842
Si    1.3828823807    4.1030345084    4.1066323258
Si    6.8233891779    9.5408927654    4.1154357850
Si    1.3676093914    9.5683534230    4.0987459555
Si    0.0185912906    0.0185912811    5.4780759738
Si    5.4680979320    0.0004953124    5.4707265475
Si    0.0004951267    5.4680979027    5.4707265317
Si    2.8963998902    2.8964000704    5.4810461107
Si    8.1883275744    2.7386187375    5.4687519200
Si    2.7386179678    8.1883274435    5.4687524958
Si    8.1133162325    8.1133159566    5.4965625567
Si    1.4506138287    1.4506137959    6.8104797993
Si    6.8321917780    1.3828833778    6.8357895296
Si    1.3828827625    6.8321914652    6.8357900126
Si    6.6598546119    6.6598539142    6.8274049764
Si    4.8627491168    4.8627500015    6.0760739254
Si    9.5674376935    4.1023076474    6.8365169857
Si    4.1023076641    9.5674376769    6.8365168758
Si    9.5448441458    9.5448440639    6.8253428090
Si    2.7481279463    0.0282143840    8.1906964781
Si    8.2040766394    0.0006279992    8.2102707920
Si    2.8964004085    5.4577775003    8.0424240191
Si    8.1883270024    5.4700730908    8.2002048639
Si    5.4577777952    2.8964012976    8.0424235405
Si    0.0282141322    2.7481275961    8.1906965160
Si    5.4700726974    8.1883262842    8.2002045403
Si    0.0006281182    8.2040769239    8.2102710119
Si    4.1283447519    1.4506142786    9.4882098769
Si    9.5875486099    1.3784807571    9.5603430926
Si    4.1030348994    6.8321917550    9.5559408812
Si    9.5683532785    6.8400787576    9.5712143465
Si    6.8321921603    4.1030353752    9.5559409459
Si    1.4506139110    4.1283442530    9.4882101183
Si    6.8400782220    9.5683531260    9.5712141000
Si    1.3784814083    9.5875485600    9.5603429947
   63

Si    0.0012817808    0.0012812901   -0.0012816585
Si    5.4631221764    0.0096522138   -0.0096524072
Si    0.0096521624    5.4631222591   -0.0096527977
Si    5.4676809797    5.4676811124    0.0022252917
Si    2.7464987448    2.7464985510   -0.0222958953
Si    8.2027474689    2.7268546486    0.0007869400
Si    2.7268549239    8.2027473126    0.0007870210
Si    8.1939790284    8.1939793234    0.0154490131
Si    1.3772767771    1.3772761910    1.3545796913
Si    6.8369949245    1.3675686676    1.3716603587
Si    1.3675683814    6.8369949209    1.3716598179
Si    6.8246897912    6.8246897501    1.3963172792
Si    4.1017109255    4.1017108314    1.3735347036
Si    9.5418771439    4.1139309441    1.3969468377
Si    4.1139311395    9.5418765812    1.3969473135
Si    9.5704770049    9.5704768511    1.3683472810
Si    2.7268547226   -0.0007875235    2.7360768520
Si    8.1939790178   -0.0154492662    2.7448452491
Si    2.7387072972    5.4706749754    2.7500410038
Si    8.1195113074    5.4451654033    2.8193132261
Si    5.4706754135    2.7387084887    2.7500418451
Si   -0.0007872175    2.7268541916    2.7360764672
Si    5.4451652649    8.1195105405    2.8193139220
Si   -0.0154489587    8.1939789899    2.7448451822
Si    4.1044178680    1.3835848547    4.1104246573
Si    9.5671638126    1.3675684441    4.1018295149
Si    4.1120685346    6.6747073364    4.2641167764
Si    9.5425070171    6.8246897889    4.1141348874
Si    6.6747075842    4.1120708934    4.2641175046
Si    1.3835843461    4.1044176410    4.1104245938
Si    6.8246897534    9.5425067676    4.1141351800
Si    1.3675685402    9.5671637208    4.1018296406
Si    0.0096521512    0.0096521294    5.4757021915
Si    5.4676808316   -0.0022251465    5.4711436360
Si   -0.0022253346    5.4676808189    5.4711436154
Si    2.8622845167    2.8622846995    5.4878816629
Si    8.1887828389    2.7387082677    5.4681489553
Si    2.7387075320    8.1887827052    5.4681495183
Si    8.1195104578    8.1195102026    5.4936595937
Si    1.4341938323    1.4341937992    6.8147481497
Si    6.8283994844    1.3835853288    6.8344064188
Si    1.3835847367    6.8283991800    6.8344068871
Si    6.6747053159    6.6747046447    6.8267514274
Si    5.0046118133    5.0046126634    5.9342112535
Si    9.5652890919    4.1017109836    6.8371136340
Si    4.1017109977    9.5652890772    6.8371135283
Si    9.5418767866    9.5418767034    6.8248934427
Si    2.7464990251    0.0222960053    8.1923253903
Si    8.2027472649   -0.0007871463    8.2119695167
Si    2.8622850460    5.4509419269    8.0765393926
Si    8.1887822936    5.4706760377    8.2001153471
Si    5.4509422250    2.8622859092    8.0765389373
Si    0.0222957549    2.7464986766    8.1923254321
Si    5.4706756408    8.1887815903    8.2001150314
Si   -0.0007870160    8.2027475487    8.2119697271
Si    4.1240763841    1.4341942706    9.5046298847
Si    9.5842444118    1.3772763738    9.5615474711
Si    4.1044180096    6.8283994709    9.5552389330
Si    9.5671635959    6.8369950744    9.5712552139
Si    6.8283998713    4.1044184859    9.5552390054
Si    1.4341939126    4.1240758956    9.5046301194
Si    6.8369945356    9.5671634381    9.5712549704
Si    1.3772770224    9.5842443674    9.5615473686
   63

Si    0.0012552783    0.0012547958   -0.0012552034
Si    5.4656440015    0.0038013384   -0.0038015710
Si    0.0038013336    5.4656441170   -0.0038018863
Si    5.4674194617    5.4674196312    0.0025712946
Si    2.7435442825    2.7435441050   -0.0147150159
Si    8.1998979349    2.7278230526   -0.0002625567
Si    2.7278233378    8.1998978194   -0.0002625386
Si    8.1962511885    8.1962514820    0.0111617463
Si    1.3750769523    1.3750763908    1.3598481916
Si    6.8345275768    1.3679139885    1.3710084700
Si    1.3679138085    6.8345276410    1.3710079904
Si    6.8269142119    6.8269142427    1.3900917302
Si    4.1014779828    4.1014779115    1.3738841534
Si    9.5451262486    4.1109898634    1.3936977100
Si    4.1109900221    9.5451257472    1.3936980993
Si    9.5707568162    9.5707566877    1.3680674371
Si    2.7278231422    0.0002619822    2.7389263363
Si    8.1962511510   -0.0111620076    2.7425730694
Si    2.7382003947    5.4704641870    2.7479595688
Si    8.1371287826    5.4520262823    2.8016956686
Si    5.4704645124    2.7382013796    2.7479602892
Si    0.0002622866    2.7278226373    2.7389259988
Si    5.4520261064    8.1371281536    2.8016962844
Si   -0.0111616936    8.1962511778    2.7425729959
Si    4.1038923958    1.3860274281    4.1167731410
Si    9.5678156409    1.3679137976    4.1042968316
Si    4.1118454821    6.7087068230    4.2301172669
Si    9.5487325302    6.8269142553    4.1119103989
Si    6.7087070513    4.1118474449    4.2301178546
Si    1.3860269775    4.1038922692    4.1167730605
Si    6.8269141195    9.5487323492    4.1119106768
Si    1.3679139680    9.5678155262    4.1042969564
Si    0.0038013207    0.0038012418    5.4731803328
Si    5.4674192826   -0.0025711045    5.4714051295
Si   -0.0025713040    5.4674193475    5.4714050868
Si    2.8300620531    2.8300622482    5.4988189929
Si    8.1908642405    2.7382012043    5.4683598278
Si    2.7382006270    8.1908640937    5.4683603312
Si    8.1371280097    8.1371278508    5.4867986535
Si    1.4162885658    1.4162885310    6.8222383712
Si    6.8220508994    1.3860278933    6.8349318918
Si    1.3860274089    6.8220506333    6.8349322915
Si    6.7087050794    6.7087045314    6.8269751233
Si    5.1369306807    5.1369313700    5.8018925004
Si    9.5649396478    4.1014780303    6.8373465155
Si    4.1014780321    9.5649396421    6.8373464294
Si    9.5451259395    9.5451258507    6.8278345324
Si    2.7435445702    0.0147151576    8.1952798027
Si    8.1998977219    0.0002623586    8.2110010784
Si    2.8300626339    5.4400044980    8.1087618562
Si    8.1908638193    5.4704650828    8.2006224725
Si    5.4400048108    2.8300633762    8.1087615095
Si    0.0147149138    2.7435442298    8.1952798634
Si    5.4704646696    8.1908631854    8.2006221935
Si    0.0002625411    8.1998980024    8.2110012447
Si    4.1165860818    1.4162889502    9.5225352043
Si    9.5789758952    1.3750765858    9.5637472371
Si    4.1038925342    6.8220509300    9.5527963816
Si    9.5678154928    6.8345277676    9.5709098620
Si    6.8220513075    4.1038930129    9.5527964899
Si    1.4162886371    4.1165856414    9.5225354080
Si    6.8345272141    9.5678153105    9.5709096324
Si    1.3750772221    9.5789758761    9.5637471134
   63

Si    0.0009866944    0.0009862307   -0.0009867288
Si    5.4680855251    0.0047672492   -0.0047675722
Si    0.0047673518    5.4680857159   -0.0047677142
Si    5.4672704964    5.4672707507   -0.0003864498
Si    2.7400304333    2.7400302935   -0.0084269503
Si    8.1959109337    2.7309328921   -0.0052240553
Si    2.7309331998    8.1959109124   -0.0052241822
Si    8.1999155600    8.1999158496    0.0049803226
Si    1.3729888182    1.3729883132    1.3653239351
Si    6.8332904833    1.3695739300    1.3687001700
Si    1.3695739950    6.8332907039    1.3686998318
Si    6.8300616405    6.8300618372    1.3797922867
Si    4.1015878693    4.1015878508    1.3719213561
Si    9.5561282166    4.1063920190    1.3826956893
Si    4.1063920929    9.5561278565    1.3826958788
Si    9.5711115941    9.5711115240    1.3677125838
Si    2.7309330174    0.0052235015    2.7429132225
Si    8.1999154603   -0.0049806028    2.7389086527
Si    2.7377057678    5.4694237676    2.7448691102
Si    8.1637581229    5.4609685071    2.7750661379
Si    5.4694238330    2.7377062759    2.7448695517
Si    0.0052238021    2.7309325728    2.7429129943
Si    5.4609682445    8.1637578124    2.7750665690
Si   -0.0049802737    8.1999156133    2.7389085642
Si    4.1019318553    1.3932097889    4.1268315461
Si    9.5701238014    1.3695738145    4.1055338535
Si    4.1105409664    6.7543888600    4.1844351772
Si    9.5590318907    6.8300617895    4.1087628138
Si    6.7543890431    4.1105420152    4.1844354407
Si    1.3932094721    4.1019319604    4.1268314260
Si    6.8300614219    9.5590318681    4.1087630578
Si    1.3695741565    9.5701236340    4.1055339764
Si    0.0047673351    0.0047671243    5.4707387320
Si    5.4672702457    0.0003867436    5.4715540382
Si    0.0003865177    5.4672704896    5.4715539447
Si    2.8152030321    2.8152032554    5.5226842548
Si    8.1939546218    2.7377062061    5.4694004413
Si    2.7377059944    8.1939544448    5.4694008071
Si    8.1637575271    8.1637575907    5.4778562873
Si    1.4050054115    1.4050053730    6.8294998212
Si    6.8119922607    1.3932102333    6.8368924343
Si    1.3932099977    6.8119920831    6.8368926757
Si    6.7543877553    6.7543874919    6.8282811241
Si    5.2627491494    5.2627494673    5.6760742956
Si    9.5669024583    4.1015878924    6.8372364876
Si    4.1015878659    9.5669024733    6.8372364467
Si    9.5561280186    9.5561279166    6.8324323975
Si    2.7400307379    0.0084271656    8.1987935370
Si    8.1959106999    0.0052238760    8.2078911598
Si    2.8152037316    5.4161390081    8.1236208772
Si    8.1939544871    5.4694242789    8.2011176139
Si    5.4161393548    2.8152041950    8.1236207812
Si    0.0084269368    2.7400304164    8.1987936409
Si    5.4694238280    8.1939540133    8.2011174198
Si    0.0052241791    8.1959109729    8.2078912244
Si    4.1093244453    1.4050056715    9.5338184811
Si    9.5735001140    1.3729885366    9.5658352355
Si    4.1019319861    6.8119923930    9.5456140717
Si    9.5701238116    6.8332907683    9.5692498489
Si    6.8119927178    4.1019324705    9.5456142630
Si    1.4050054621    4.1093241161    9.5338186132
Si    6.8332901809    9.5701235728    9.5692496513
Si    1.3729891446    9.5735001533    9.5658350628
   63

Si    0.0004256515    0.0004252140   -0.0004258375
Si    5.4701770652    0.0119007405   -0.0119011890
Si    0.0119009921    5.4701773606   -0.0119010905
Si    5.4671069967    5.4671073687   -0.0052966333
Si    2.7367320964    2.7367320089   -0.0059657830
Si    8.1925215780    2.7343991953   -0.0120054031
Si    2.7343995344    8.1925216873   -0.0120057313
Si    8.2036923488    8.2036926332   -0.0005302704
Si    1.3716418322    1.3716414056    1.3690275298
Si    6.8329618191    1.3717553334    1.3657918585
Si    1.3717557382    6.8329622567    1.3657917163
Si    6.8328083802    6.8328088068    1.3691017607
Si    4.1016486849    4.1016487396    1.3678777500
Si    9.5716361256    4.1020075986    1.3671877071
Si    4.1020075549    9.5716359615    1.3671876196
Si    9.5713186918    9.5713187028    1.3675053815
Si    2.7343993703    0.0120048781    2.7463024188
Si    8.2036921629    0.0005299641    2.7351318011
Si    2.7364254702    5.4671605423    2.7407858824
Si    8.1926349479    5.4698160075    2.7461890489
Si    5.4671602469    2.7364253171    2.7407859371
Si    0.0120051734    2.7343990093    2.7463023423
Si    5.4698156246    8.1926350792    2.7461892239
Si    0.0005303142    8.2036924910    2.7351316917
Si    4.0986095952    1.4030994507    4.1384997234
Si    9.5730319195    1.3717553225    4.1058624183
Si    4.1050140360    6.8011101622    4.1377138017
Si    9.5697223017    6.8328086756    4.1060158572
Si    6.8011102826    4.1050138172    4.1377136158
Si    1.4030993195    4.0986100218    4.1384995484
Si    6.8328079864    9.5697224986    4.1060160541
Si    1.3717559023    9.5730316789    4.1058625387
Si    0.0119009702    0.0119005764    5.4686470847
Si    5.4671066467    0.0052970708    5.4717174595
Si    0.0052968083    5.4671071390    5.4717172954
Si    2.8205968223    2.8205970849    5.5554516196
Si    8.1980377425    2.7364253936    5.4716639358
Si    2.7364256890    8.1980375237    5.4716641108
Si    8.1926345979    8.1926349698    5.4690085910
Si    1.4033089402    1.4033088964    6.8336676139
Si    6.8003237592    1.4030998664    6.8402146970
Si    1.4030999758    6.8003237045    6.8402147189
Si    6.8011099435    6.8011100747    6.8338101140
Si    5.3851668366    5.3851666397    5.5536569743
Si    9.5709460827    4.1016486739    6.8371754760
Si    4.1016486083    9.5709461264    6.8371754979
Si    9.5716360818    9.5716359615    6.8368168467
Si    2.7367324246    0.0059661003    8.2020917144
Si    8.1925213154    0.0120052500    8.2044247468
Si    2.8205976865    5.3833713270    8.1182270870
Si    8.1980380050    5.4671605204    8.2023986250
Si    5.3833717208    2.8205977631    8.1182273385
Si    0.0059658924    2.7367321292    8.2020918785
Si    5.4671600172    8.1980377534    8.2023985485
Si    0.0120057204    8.1925215780    8.2044246703
Si    4.1051563938    1.4033090277    9.5355151223
Si    9.5697964670    1.3716416681    9.5671820333
Si    4.0986097155    6.8003240327    9.5357244804
Si    9.5730321492    6.8329622348    9.5670683461
Si    6.8003242843    4.0986102077    9.5357247867
Si    1.4033089620    4.1051562188    9.5355151551
Si    6.8329616003    9.5730318320    9.5670681930
Si    1.3716422369    9.5697965873    9.5671817927
