   63

Si    0.0000001860   -0.0000003610    0.0000002625
Si    5.4694124414   -0.0000001203    0.0000001969
Si   -0.0000004922    5.4694122992   -0.0000007110
Si    5.4694124742    5.4694123539   -0.0000002078
Si    2.7387808178    2.7387805115   -0.0015328793
Si    8.2000437916    2.7387809381    0.0015321354
Si    2.7387811460    8.2000433540    0.0015326496
Si    8.2000434306    8.2000437369   -0.0015323761
Si    1.3679084006    1.3679076458    1.3679077880
Si    6.8375423095    1.3791649975    1.3791649975
Si    1.3791639802    6.8375418391    1.3791640349
Si    6.8348090583    6.8348085223    1.3733881279
Si    4.1040157808    4.1040155292    1.3733875701
Si    9.5596599619    4.1012823874    1.3791641771
Si    4.1012828359    9.5596589774    1.3791652491
Si    9.5709162306    9.5709159025    1.3679082803
Si    2.7387809053   -0.0015327808    2.7387808725
Si    8.2000436056    0.0015321792    2.7387809819
Si    2.7705992206    5.4728179599    2.7705999207
Si    8.1682244699    5.4660056541    2.7706006318
Si    5.4728191741    2.7706018350    2.7706015944
Si   -0.0015324636    2.7387801943    2.7387801615
Si    5.4660057744    8.1682227525    2.7706018788
Si    0.0015324417    8.2000432009    2.7387809600
Si    4.1040159448    1.3733878873    4.1040155510
Si    9.5596595900    1.3791645490    4.1012823437
Si    4.1879069896    6.7509144694    4.1879098009
Si    9.5654364158    6.8348087411    4.1040160871
Si    6.7509148522    4.1879120762    4.1879114964
Si    1.3733869794    4.1040150260    4.1040156057
Si    6.8348093974    9.5654356938    4.1040164808
Si    1.3791641333    9.5596596556    4.1012824749
Si   -0.0000004922   -0.0000001203    5.4694121570
Si    5.4694125399    0.0000000438    5.4694123102
Si   -0.0000000656    5.4694119929    5.4694124414
Si    2.7705998551    2.7705999536    5.4728182552
Si    8.1682241526    2.7706012990    5.4660053915
Si    2.7705994722    8.1682241089    5.4660063651
Si    8.1682230916    8.1682221727    5.4728197648
Si    1.3791641771    1.3791641552    6.8375420360
Si    6.8348092880    1.3733884233    6.8348083364
Si    1.3733870888    6.8348087192    6.8348092771
Si    6.7509105424    6.7509090219    6.7509085405
Si    4.1879079194    4.1879098774    6.7509143600
Si    9.5654361861    4.1040159120    6.8348092005
Si    4.1040160105    9.5654361095    6.8348089599
Si    9.5596592728    9.5596592290    6.8375419375
Si    2.7387810475    0.0015327699    8.2000436603
Si    8.2000436494   -0.0015323980    8.2000434634
Si    2.7706000301    5.4660060150    8.1682240542
Si    8.1682227525    5.4728201695    8.1682218883
Si    5.4660062119    2.7706017256    8.1682228509
Si    0.0015324746    2.7387806428    8.2000435728
Si    5.4728198851    8.1682215711    8.1682213195
Si   -0.0015326277    8.2000439557    8.2000439775
Si    4.1012830547    1.3791649865    9.5596591743
Si    9.5709164275    1.3679077443    9.5709162525
Si    4.1040161089    6.8348089708    9.5654357485
Si    9.5596589009    6.8375421782    9.5596590978
Si    6.8348095287    4.1040165684    9.5654355735
Si    1.3791643193    4.1012822343    9.5596596228
Si    6.8375417406    9.5596589118    9.5596587587
Si    1.3679084772    9.5709162088    9.5709162963
   63

Si    0.0052159634    0.0052154647   -0.0052157944
Si    5.4724693576    0.0195333577   -0.0195335125
Si    0.0195332605    5.4724694081   -0.0195339771
Si    5.4744254288    5.4744255253   -0.0074860987
Si    2.7515634629    2.7515632530   -0.0268788135
Si    8.2134780430    2.7394612254   -0.0059089076
Si    2.7394614910    8.2134778463   -0.0059087645
Si    8.1985015436    8.1985018403    0.0080015992
Si    1.3798650390    1.3798644288    1.3469719575
Si    6.8515882501    1.3741368317    1.3673619141
Si    1.3741364408    6.8515881797    1.3673613128
Si    6.8301015299    6.8301014179    1.3830412289
Si    4.1083737975    4.1083736809    1.3633744463
Si    9.5694613405    4.1091948236    1.3693626636
Si    4.1091950552    9.5694607174    1.3693632248
Si    9.5738551736    9.5738549948    1.3649691446
Si    2.7394612841    0.0059083152    2.7253463272
Si    8.1985015596   -0.0080018443    2.7403227532
Si    2.7570879391    5.4754375130    2.7493323431
Si    8.1608876837    5.4548051898    2.7779369313
Si    5.4754380622    2.7570893344    2.7493333036
Si    0.0059086228    2.7394607273    2.7253458956
Si    5.4548050885    8.1608867805    2.7779377062
Si   -0.0080015432    8.1985014777    2.7403226928
Si    4.1068789181    1.3764895403    4.0934385818
Si    9.5714623168    1.3741365760    4.0872362199
Si    4.1443675685    6.7519568826    4.1868672527
Si    9.5557831028    6.8301014825    4.1087232156
Si    6.7519571498    4.1443703182    4.1868681195
Si    1.3764889745    4.1068785919    4.0934385353
Si    6.8301015462    9.5557827856    4.1087235226
Si    1.3741365988    9.5714622476    4.0872363463
Si    0.0195332508    0.0195332855    5.4663550433
Si    5.4744253114    0.0074861996    5.4643992110
Si    0.0074860228    5.4744252222    5.4643992122
Si    2.8248557398    2.8248559106    5.4593839281
Si    8.1894915327    2.7570890683    5.4633863347
Si    2.7570881762    8.1894914119    5.4633869565
Si    8.1608867583    8.1608864080    5.4840198677
Si    1.4175313359    1.4175313044    6.8130426028
Si    6.8453856598    1.3764900233    6.8319453680
Si    1.3764893248    6.8453853174    6.8319459040
Si    6.7519545890    6.7519537960    6.7944517585
Si    4.3176466227    4.3176476316    6.6211763312
Si    9.5754493435    4.1083738662    6.8304508224
Si    4.1083738923    9.5754493200    6.8304506974
Si    9.5694609357    9.5694608582    6.8296295544
Si    2.7515637360    0.0268788920    8.1872607213
Si    8.2134778478    0.0059086932    8.1993629738
Si    2.8248562184    5.4794397591    8.1139681694
Si    8.1894908649    5.4754387397    8.1817344853
Si    5.4794400428    2.8248572008    8.1139676070
Si    0.0268786352    2.7515633794    8.1872607446
Si    5.4754383589    8.1894900931    8.1817341333
Si    0.0059087719    8.2134781348    8.1993632277
Si    4.1257820108    1.4175318273    9.5212923287
Si    9.5918521617    1.3798645995    9.5589592672
Si    4.1068790629    6.8453856027    9.5623342256
Si    9.5714620324    6.8515883598    9.5646870804
Si    6.8453860257    4.1068795368    9.5623342626
Si    1.4175314251    4.1257814747    9.5212925941
Si    6.8515878355    9.5714618988    9.5646868232
Si    1.3798652601    9.5918520923    9.5589591857
   63

Si    0.0050574720    0.0050569815   -0.0050573506
Si    5.4666906953    0.0268423790   -0.0268425730
Si    0.0268423284    5.4666907786   -0.0268429622
Si    5.4734313174    5.4734314508   -0.0076090548
Si    2.7560794579    2.7560792644   -0.0399569036
Si    8.2160597289    2.7333085959   -0.0053901399
Si    2.7333088714    8.2160595732   -0.0053900599
Si    8.1925514914    8.1925517864    0.0209080209
Si    1.3839941510    1.3839935654    1.3377394572
Si    6.8548849533    1.3647409694    1.3650159996
Si    1.3647406851    6.8548849509    1.3650154598
Si    6.8213145515    6.8213145117    1.3974119297
Si    4.1068592636    4.1068591699    1.3621207177
Si    9.5650645477    4.1093210439    1.3737594334
Si    4.1093212386    9.5650639861    1.3737599077
Si    9.5722203794    9.5722202260    1.3666039060
Si    2.7333086702    0.0053895565    2.7227645912
Si    8.1925514803   -0.0209082742    2.7462727858
Si    2.7420802865    5.4717184520    2.7411058395
Si    8.1392345704    5.4391894959    2.7995899617
Si    5.4717188881    2.7420814744    2.7411066787
Si    0.0053898625    2.7333081396    2.7227642072
Si    5.4391893569    8.1392338059    2.7995906562
Si   -0.0209079665    8.1925514534    2.7462727188
Si    4.1031350103    1.3752351282    4.0924228479
Si    9.5738081707    1.3647407464    4.0839394856
Si    4.1112747367    6.7245328544    4.2142912580
Si    9.5414123659    6.8213145500    4.1175101259
Si    6.7245331019    4.1112770887    4.2142919837
Si    1.3752346206    4.1031347849    4.0924227842
Si    6.8213145129    9.5414121176    4.1175104182
Si    1.3647408438    9.5738080784    4.0839396112
Si    0.0268423171    0.0268422944    5.4721336720
Si    5.4734311688    0.0076092008    5.4653932978
Si    0.0076090125    5.4734311575    5.4653932769
Si    2.8733524583    2.8733526413    5.4560363909
Si    8.1977180027    2.7420812541    5.4671054802
Si    2.7420805212    8.1977178687    5.4671060421
Si    8.1392337222    8.1392334686    5.4996355001
Si    1.4457232141    1.4457231809    6.7997400131
Si    6.8464012920    1.3752356021    6.8356892766
Si    1.3752350119    6.8464009882    6.8356897437
Si    6.7245308388    6.7245301696    6.8275452364
Si    4.4640465742    4.4640474215    6.4747764946
Si    9.5767030779    4.1068593216    6.8319652948
Si    4.1068593355    9.5767030633    6.8319651894
Si    9.5650641913    9.5650641080    6.8295033431
Si    2.7560797384    0.0399570141    8.1827446763
Si    8.2160595247    0.0053899338    8.2055155688
Si    2.8733529886    5.4827871971    8.0654714510
Si    8.1977174596    5.4717195114    8.1967423617
Si    5.4827874955    2.8733538496    8.0654709976
Si    0.0399567638    2.7560793900    8.1827447184
Si    5.4717191142    8.1977167574    8.1967420466
Si    0.0053900649    8.2160598084    8.2055157785
Si    4.1390845194    1.4457236514    9.4931005038
Si    9.6010846456    1.3839937484    9.5548300962
Si    4.1031351518    6.8464012793    9.5635886599
Si    9.5738079551    6.8548851039    9.5740829116
Si    6.8464016793    4.1031356281    9.5635887329
Si    1.4457232943    4.1390840316    9.4931007381
Si    6.8548845649    9.5738077969    9.5740826683
Si    1.3839943967    9.6010846016    9.5548299933
   63

Si    0.0037087027    0.0037082109   -0.0037085739
Si    5.4627889267    0.0272090411   -0.0272092292
Si    0.0272089834    5.4627890050   -0.0272096300
Si    5.4712716688    5.4712717965   -0.0049222215
Si    2.7573079418    2.7573077458   -0.0452653180
Si    8.2153799178    2.7272309918   -0.0029935046
Si    2.7272312658    8.2153797559   -0.0029934149
Si    8.1882586792    8.1882589745    0.0293129717
Si    1.3850384680    1.3850378786    1.3347712986
Si    6.8531050869    1.3586623854    1.3659083798
Si    1.3586620847    6.8531050740    1.3659078306
Si    6.8152848561    6.8152848052    1.4079262520
Si    4.1042443950    4.1042442978    1.3644819551
Si    9.5561340997    4.1085205615    1.3826898850
Si    4.1085207619    9.5561335286    1.3826903727
Si    9.5701216791    9.5701215218    1.3687026114
Si    2.7272310638    0.0029929198    2.7234444100
Si    8.1882586724   -0.0293132237    2.7505656009
Si    2.7319696462    5.4699941844    2.7386685061
Si    8.1179750417    5.4291180131    2.8208495032
Si    5.4699946380    2.7319708660    2.7386693639
Si    0.0029932260    2.7272305291    2.7234440187
Si    5.4291178799    8.1179742558    2.8208502101
Si   -0.0293129171    8.1882586369    2.7505655350
Si    4.1004209306    1.3738183173    4.0937304872
Si    9.5729157998    1.3586621574    4.0857193568
Si    4.0923194902    6.6861267363    4.2526973797
Si    9.5308980492    6.8152848475    4.1235398318
Si    6.6861269868    4.0923219034    4.2526981271
Si    1.3738178007    4.1004206898    4.0937304262
Si    6.8152848259    9.5308977902    4.1235401264
Si    1.3586622433    9.5729157111    4.0857194825
Si    0.0272089724    0.0272089585    5.4760354457
Si    5.4712715250    0.0049223605    5.4675529502
Si    0.0049221740    5.4712715017    5.4675529327
Si    2.9061125521    2.9061127333    5.4542365396
Si    8.2001553413    2.7319706387    5.4688297347
Si    2.7319698813    8.2001552093    5.4688303059
Si    8.1179741815    8.1179739131    5.5097069923
Si    1.4617494793    1.4617494464    6.7944104684
Si    6.8450936684    1.3738187927    6.8384033561
Si    1.3738181857    6.8450933586    6.8384038338
Si    6.6861246778    6.6861239897    6.8465003835
Si    4.6240270643    4.6240279365    6.3147959868
Si    9.5743418397    4.1042444546    6.8345801729
Si    4.1042444704    9.5743418237    6.8345800645
Si    9.5561337357    9.5561336534    6.8303038241
Si    2.7573082212    0.0452654235    8.1815162000
Si    8.2153797150    0.0029932972    8.2115931782
Si    2.9061130744    5.4845870637    8.0327113571
Si    8.2001547790    5.4699952696    8.2068529676
Si    5.4845873598    2.9061139541    8.0327108870
Si    0.0452651723    2.7573078715    8.1815162393
Si    5.4699948750    8.2001540661    8.2068526468
Si    0.0029934202    8.2153799992    8.2115933947
Si    4.1444140766    1.4617499250    9.4770742303
Si    9.6040528067    1.3850380598    9.5537857882
Si    4.1004210727    6.8450936488    9.5650054674
Si    9.5729155737    6.8531052312    9.5801615004
Si    6.8450940523    4.1004215486    9.5650055349
Si    1.4617495609    4.1444135814    9.4770744694
Si    6.8531046945    9.5729154193    9.5801612550
Si    1.3850387100    9.6040527588    9.5537856887
   63

Si    0.0027462832    0.0027457908   -0.0027461510
Si    5.4625286400    0.0214816777   -0.0214818629
Si    0.0214816166    5.4625287159   -0.0214822692
Si    5.4693496787    5.4693498038   -0.0010776322
Si    2.7578664316    2.7578662343   -0.0457271517
Si    8.2151796955    2.7215834290   -0.0001477095
Si    2.7215837023    8.2151795306   -0.0001476152
Si    8.1862591391    8.1862594345    0.0332542525
Si    1.3857775043    1.3857769131    1.3345022562
Si    6.8497484051    1.3570456618    1.3682601440
Si    1.3570453533    6.8497483873    1.3682595903
Si    6.8133894590    6.8133894028    1.4133014250
Si    4.1022110852    4.1022109863    1.3680387630
Si    9.5473462182    4.1101687504    1.3914777681
Si    4.1101689535    9.5473456426    1.3914782622
Si    9.5691692929    9.5691691338    1.3696549999
Si    2.7215834998    0.0001471241    2.7236446359
Si    8.1862591342   -0.0332545039    2.7525651425
Si    2.7283706292    5.4704413300    2.7397679493
Si    8.1050440335    5.4246775901    2.8337805174
Si    5.4704417918    2.7283718640    2.7397688159
Si    0.0001474304    2.7215829633    2.7236442412
Si    5.4246774596    8.1050432376    2.8337812301
Si   -0.0332541978    8.1862590948    2.7525650770
Si    4.1015510388    1.3726752703    4.0945065981
Si    9.5705640400    1.3570454314    4.0890760409
Si    4.0878801898    6.6577863151    4.2810378025
Si    9.5255228788    6.8133894471    4.1254352338
Si    6.6577865671    4.0878826317    4.2810385602
Si    1.3726747495    4.1015507907    4.0945065383
Si    6.8133894327    9.5255226149    4.1254355295
Si    1.3570455119    9.5705639529    4.0890761667
Si    0.0214816057    0.0214815959    5.4762957348
Si    5.4693495371    0.0010777680    5.4694749421
Si    0.0010775822    5.4693495082    5.4694749261
Si    2.9084513761    2.9084515563    5.4546008913
Si    8.1990559005    2.7283716334    5.4683825830
Si    2.7283708644    8.1990557695    5.4683831585
Si    8.1050431678    8.1050428923    5.5141474198
Si    1.4634438305    1.4634437977    6.7921224897
Si    6.8443175648    1.3726757463    6.8372732478
Si    1.3726751316    6.8443172523    6.8372737305
Si    6.6577842365    6.6577835394    6.8509396372
Si    4.7988100193    4.7988109032    6.1400130235
Si    9.5707850314    4.1022111456    6.8366134871
Si    4.1022111622    9.5707850148    6.8366133774
Si    9.5473458507    9.5473457688    6.8286556346
Si    2.7578667104    0.0457272549    8.1809577139
Si    8.2151794933    0.0001475015    8.2172407435
Si    2.9084518946    5.4842227192    8.0303725332
Si    8.1990553291    5.4704424273    8.2104519684
Si    5.4842230142    2.9084527831    8.0303720552
Si    0.0457270032    2.7578663601    8.1809577518
Si    5.4704420339    8.1990546112    8.2104516449
Si    0.0001476208    8.2151797778    8.2172409632
Si    4.1467020612    1.4634442801    9.4753798753
Si    9.6043218503    1.3857770933    9.5530467562
Si    4.1015511811    6.8443175420    9.5661485127
Si    9.5705638089    6.8497485464    9.5817782263
Si    6.8443179472    4.1015516569    9.5661485776
Si    1.4634439127    4.1467015625    9.4753801166
Si    6.8497480107    9.5705636562    9.5817779799
Si    1.3857777444    9.6043218006    9.5530466582
   63

Si    0.0019205083    0.0019200160   -0.0019203765
Si    5.4635377274    0.0147875256   -0.0147877111
Si    0.0147874649    5.4635378036   -0.0147881168
Si    5.4676619441    5.4676620695    0.0017088231
Si    2.7568482881    2.7568480910   -0.0423690959
Si    8.2141128570    2.7186169981    0.0016195903
Si    2.7186172714    8.2141126924    0.0016196841
Si    8.1863248434    8.1863251388    0.0337276106
Si    1.3846687999    1.3846682089    1.3369528286
Si    6.8459331697    1.3564097048    1.3701547390
Si    1.3564093972    6.8459331525    1.3701541858
Si    6.8135575662    6.8135575106    1.4132608688
Si    4.1006056916    4.1006055928    1.3707465321
Si    9.5433421393    4.1099523599    1.3954818469
Si    4.1099525627    9.5433415642    1.3954823402
Si    9.5683082197    9.5683080607    1.3705160729
Si    2.7186170690   -0.0016201757    2.7247114741
Si    8.1863248382   -0.0337278621    2.7524994381
Si    2.7269667489    5.4709074413    2.7402260565
Si    8.1067348706    5.4257934481    2.8320896796
Si    5.4709079021    2.7269679821    2.7402269222
Si   -0.0016198693    2.7186165326    2.7247110797
Si    5.4257933173    8.1067340759    2.8320903916
Si   -0.0337275559    8.1863247993    2.7524993725
Si    4.1020134504    1.3716275597    4.0971949003
Si    9.5686694445    1.3564094747    4.0928912760
Si    4.0862123115    6.6620812879    4.2767428295
Si    9.5255634347    6.8135575547    4.1252671261
Si    6.6620815398    4.0862147503    4.2767435860
Si    1.3716270394    4.1020132030    4.0971948404
Si    6.8135575395    9.5255631713    4.1252674216
Si    1.3564095558    9.5686693573    4.0928914018
Si    0.0147874540    0.0147874437    5.4752866472
Si    5.4676618023   -0.0017086869    5.4711626765
Si   -0.0017088727    5.4676617740    5.4711626603
Si    2.8864544615    2.8864546419    5.4574622788
Si    8.1985977930    2.7269677518    5.4679164724
Si    2.7269669841    8.1985976619    5.4679170475
Si    8.1067340055    8.1067337309    5.5130315613
Si    1.4541022752    1.4541022424    6.7945318210
Si    6.8416292618    1.3716280357    6.8368108363
Si    1.3716274218    6.8416289496    6.8368113184
Si    6.6620792116    6.6620785155    6.8526075206
Si    4.9341829802    4.9341838627    6.0046400635
Si    9.5680772622    4.1006057519    6.8382188803
Si    4.1006057684    9.5680772457    6.8382187706
Si    9.5433417722    9.5433416902    6.8288720251
Si    2.7568485670    0.0423691995    8.1819758570
Si    8.2141126547   -0.0016197983    8.2202071742
Si    2.8864549805    5.4813613309    8.0523694478
Si    8.1985972226    5.4709085372    8.2118558505
Si    5.4813616261    2.8864558680    8.0523689706
Si    0.0423689478    2.7568482168    8.1819758950
Si    5.4709081436    8.1985965053    8.2118555273
Si   -0.0016196786    8.2141129392    8.2202073935
Si    4.1442927292    1.4541027244    9.4847214310
Si    9.6018712778    1.3846683892    9.5541554602
Si    4.1020135926    6.8416292394    9.5671962235
Si    9.5686692140    6.8459333114    9.5824141830
Si    6.8416296444    4.1020140684    9.5671962887
Si    1.4541023574    4.1442922309    9.4847216721
Si    6.8459327756    9.5686690611    9.5824139367
Si    1.3846690403    9.6018712283    9.5541553620
   63

Si    0.0006526877    0.0006521949   -0.0006525532
Si    5.4629239844    0.0082611732   -0.0082613565
Si    0.0082611099    5.4629240588   -0.0082617664
Si    5.4658050468    5.4658051701    0.0042405909
Si    2.7535933930    2.7535931950   -0.0366874353
Si    8.2111500233    2.7169064531    0.0027689753
Si    2.7169067259    8.2111498564    0.0027690725
Si    8.1867925368    8.1867928323    0.0325657344
Si    1.3819333395    1.3819327471    1.3415868010
Si    6.8412508776    1.3551856786    1.3719706987
Si    1.3551853651    6.8412508566    1.3719701421
Si    6.8139814966    6.8139814370    1.4110997366
Si    4.0986277711    4.0986276711    1.3730297976
Si    9.5423793843    4.1080909597    1.3964446031
Si    4.1080911646    9.5423788059    1.3964451012
Si    9.5670901383    9.5670899779    1.3717341561
Si    2.7169065231   -0.0027695611    2.7276743105
Si    8.1867925332   -0.0325659855    2.7520317457
Si    2.7256807456    5.4696944738    2.7405544122
Si    8.1164106337    5.4287496675    2.8224139211
Si    5.4696949409    2.7256819903    2.7405552846
Si   -0.0027692547    2.7169059853    2.7276739135
Si    5.4287495388    8.1164098312    2.8224146376
Si   -0.0325656796    8.1867924912    2.7520316805
Si    4.1009694789    1.3719782906    4.1035114580
Si    9.5668534882    1.3551854467    4.0975735698
Si    4.0863889725    6.6842398436    4.2545842751
Si    9.5277245689    6.8139814826    4.1248431994
Si    6.6842400965    4.0863914333    4.2545850394
Si    1.3719777671    4.1009692259    4.1035113990
Si    6.8139814730    9.5277243017    4.1248434957
Si    1.3551855237    9.5668534023    4.0975736956
Si    0.0082610991    0.0082610920    5.4759003920
Si    5.4658049067   -0.0042404572    5.4730195752
Si   -0.0042406424    5.4658048740    5.4730195603
Si    2.8579005567    2.8579007363    5.4678482833
Si    8.1982694392    2.7256817574    5.4691294352
Si    2.7256809809    8.1982693088    5.4691300136
Si    8.1164097643    8.1164094843    5.5100753453
Si    1.4398689267    1.4398688940    6.8000427201
Si    6.8353127098    1.3719787671    6.8378548077
Si    1.3719781472    6.8353123954    6.8378552937
Si    6.6842377519    6.6842370489    6.8524308238
Si    5.0595496164    5.0595505079    5.8792734209
Si    9.5657939964    4.0986278320    6.8401968042
Si    4.0986278492    9.5657939794    6.8401966935
Si    9.5423790146    9.5423789330    6.8307334248
Si    2.7535936714    0.0366875371    8.1852307549
Si    8.2111498215   -0.0027691837    8.2219177211
Si    2.8579010728    5.4709753319    8.0809233526
Si    8.1982688619    5.4696955790    8.2131418413
Si    5.4709756262    2.8579019670    8.0809228694
Si    0.0366872850    2.7535933208    8.1852307919
Si    5.4696951863    8.1982681407    8.2131415161
Si   -0.0027690669    8.2111501062    8.2219179429
Si    4.1387818346    1.4398693789    9.4989547766
Si    9.5972373063    1.3819329268    9.5568909238
Si    4.1009696213    6.8353126849    9.5668454913
Si    9.5668532538    6.8412510170    9.5836382109
Si    6.8353130912    4.1009700970    9.5668455545
Si    1.4398690094    4.1387813336    9.4989550194
Si    6.8412504820    9.5668531024    9.5836379638
Si    1.3819335785    9.5972372554    9.5568908268
   63

Si   -0.0016416556   -0.0016421495    0.0016417964
Si    5.4616421429    0.0023483357   -0.0023485138
Si    0.0023482662    5.4616422129   -0.0023489336
Si    5.4632394063    5.4632395248    0.0054028005
Si    2.7468973099    2.7468971097   -0.0257163972
Si    8.2038707405    2.7169185037    0.0027010934
Si    2.7169187752    8.2038705682    0.0027011990
Si    8.1880070940    8.1880073897    0.0284429469
Si    1.3769631797    1.3769625841    1.3508580245
Si    6.8358732247    1.3550094184    1.3737306502
Si    1.3550090908    6.8358731947    1.3737300855
Si    6.8154467360    6.8154466669    1.4041933331
Si    4.0967688098    4.0967687068    1.3750915966
Si    9.5451907283    4.1024751943    1.3936332622
Si    4.1024754041    9.5451901417    1.3936337718
Si    9.5656943419    9.5656941782    1.3731299568
Si    2.7169185717   -0.0027016805    2.7349535999
Si    8.1880070939   -0.0284431968    2.7508171911
Si    2.7242921031    5.4660868762    2.7422599719
Si    8.1344490196    5.4357646680    2.8043755462
Si    5.4660873582    2.7242933752    2.7422608603
Si   -0.0027013738    2.7169180305    2.7349531966
Si    5.4357645443    8.1344481988    2.8043762733
Si   -0.0284428919    8.1880070447    2.7508171268
Si    4.0977594471    1.3753030237    4.1143105664
Si    9.5650935447    1.3550091822    4.1029512268
Si    4.0872069092    6.7173580810    4.2214660407
Si    9.5346309772    6.8154467159    4.1233779690
Si    6.7173583366    4.0872094226    4.2214668237
Si    1.3753024924    4.0977591808    4.1143105097
Si    6.8154467196    9.5346307009    4.1233782673
Si    1.3550092493    9.5650934618    4.1029513528
Si    0.0023482555    0.0023482561    5.4771822380
Si    5.4632392704   -0.0054026728    5.4755852189
Si   -0.0054028564    5.4632392274    5.4755852069
Si    2.8319448315    2.8319450096    5.4884786197
Si    8.1965638840    2.7242931363    5.4727370217
Si    2.7242923388    8.1965637553    5.4727376079
Si    8.1344481400    8.1344478472    5.5030603529
Si    1.4220700430    1.4220700105    6.8114511360
Si    6.8245136148    1.3753035013    6.8410648394
Si    1.3753028671    6.8245132953    6.8410653345
Si    6.7173559525    6.7173552331    6.8516128016
Si    5.1752448093    5.1752457222    5.7635782129
Si    9.5637321966    4.0967688721    6.8420557736
Si    4.0967688910    9.5637321784    6.8420556603
Si    9.5451903522    9.5451902713    6.8363491890
Si    2.7468975874    0.0257164947    8.1919268446
Si    8.2038705400   -0.0027013029    8.2219056750
Si    2.8319453408    5.4503450086    8.1068790777
Si    8.1965632902    5.4660880035    8.2145304542
Si    5.4503453010    2.8319462511    8.1068785801
Si    0.0257162418    2.7468972357    8.1919268791
Si    5.4660876130    8.1965625598    8.2145301242
Si   -0.0027011931    8.2038708250    8.2219059026
Si    4.1273734294    1.4220705023    9.5167536533
Si    9.5879660850    1.3769627621    9.5618610914
Si    4.0977595899    6.8245135841    9.5635207554
Si    9.5650933012    6.8358733587    9.5838144752
Si    6.8245139934    4.0977600653    9.5635208138
Si    1.4220701268    4.1273729221    9.5167539001
Si    6.8358728257    9.5650931530    9.5838142263
Si    1.3769634155    9.5879660307    9.5618609972
   63

Si   -0.0027202958   -0.0027207791    0.0027203752
Si    5.4623053397    0.0011888039   -0.0011890328
Si    0.0011887947    5.4623054521   -0.0011893552
Si    5.4625884037    5.4625885698    0.0033603253
Si    2.7393806270    2.7393804480   -0.0127403476
Si    8.1955037908    2.7213201828   -0.0005410721
Si    2.7213204670    8.1955036715   -0.0005410481
Si    8.1926919715    8.1926922651    0.0184591221
Si    1.3718364812    1.3718359174    1.3624755640
Si    6.8310570454    1.3588419761    1.3732776964
Si    1.3588417862    6.8310571033    1.3732772111
Si    6.8208027481    6.8208027722    1.3909216155
Si    4.0966252670    4.0966251936    1.3744308418
Si    9.5536522691    4.0980036297    1.3851716917
Si    4.0980037918    9.5536517620    1.3851720890
Si    9.5662138760    9.5662137452    1.3726103803
Si    2.7213202709    0.0005404967    2.7433204850
Si    8.1926919365   -0.0184593826    2.7461322882
Si    2.7265624114    5.4634169910    2.7436898594
Si    8.1602237630    5.4487718669    2.7786006958
Si    5.4634173269    2.7265634155    2.7436905911
Si    0.0005408012    2.7213197635    2.7433201431
Si    5.4487716945    8.1602231213    2.7786013190
Si   -0.0184590691    8.1926919582    2.7461322154
Si    4.0950937066    1.3842210867    4.1277483515
Si    9.5655464201    1.3588417822    4.1077673659
Si    4.0920803292    6.7575820134    4.1812420786
Si    9.5479026482    6.8208027873    4.1180218690
Si    6.7575822435    4.0920823288    4.1812426794
Si    1.3842206306    4.0950935706    4.1277482725
Si    6.8208026608    9.5479024608    4.1180221482
Si    1.3588419457    9.5655463075    4.1077674908
Si    0.0011887820    0.0011887084    5.4765189977
Si    5.4625882274   -0.0033601393    5.4762361898
Si   -0.0033603378    5.4625882852    5.4762361492
Si    2.8145365399    2.8145367338    5.5193717913
Si    8.1951339530    2.7265632359    5.4754070160
Si    2.7265626439    8.1951338074    5.4754075249
Si    8.1602229830    8.1602228152    5.4900530745
Si    1.4060700274    1.4060699928    6.8257032482
Si    6.8110756984    1.3842215527    6.8437305810
Si    1.3842210583    6.8110754287    6.8437309871
Si    6.7575802440    6.7575796846    6.8467402164
Si    5.2854759026    5.2854766068    5.6533472679
Si    9.5643929589    4.0966253155    6.8421992369
Si    4.0966253185    9.5643929523    6.8421991490
Si    9.5536519555    9.5536518672    6.8408207653
Si    2.7393809140    0.0127404865    8.1994434629
Si    8.1955035786    0.0005408732    8.2175039514
Si    2.8145371159    5.4194517088    8.1242873694
Si    8.1951335203    5.4634179022    8.2122604351
Si    5.4194520203    2.8145378694    8.1242870126
Si    0.0127402420    2.7393805729    8.1994435218
Si    5.4634174905    8.1951328799    8.2122601527
Si    0.0005410509    8.1955038594    8.2175041219
Si    4.1131212124    1.4060704168    9.5327537377
Si    9.5763485243    1.3718361113    9.5669877136
Si    4.0950938452    6.8110757249    9.5546027210
Si    9.5655462656    6.8310572324    9.5799818773
Si    6.8110761045    4.0950943238    9.5546028260
Si    1.4060700996    4.1131207675    9.5327539444
Si    6.8310566802    9.5655460856    9.5799816464
Si    1.3718367488    9.5763485028    9.5669875919
   63

Si    0.0004256515    0.0004252140   -0.0004258375
Si    5.4701770652    0.0119007405   -0.0119011890
Si    0.0119009921    5.4701773606   -0.0119010905
Si    5.4671069967    5.4671073687   -0.0052966333
Si    2.7367320964    2.7367320089   -0.0059657830
Si    8.1925215780    2.7343991953   -0.0120054031
Si    2.7343995344    8.1925216873   -0.0120057313
Si    8.2036923488    8.2036926332   -0.0005302704
Si    1.3716418322    1.3716414056    1.3690275298
Si    6.8329618191    1.3717553334    1.3657918585
Si    1.3717557382    6.8329622567    1.3657917163
Si    6.8328083802    6.8328088068    1.3691017607
Si    4.1016486849    4.1016487396    1.3678777500
Si    9.5716361256    4.1020075986    1.3671877071
Si    4.1020075549    9.5716359615    1.3671876196
Si    9.5713186918    9.5713187028    1.3675053815
Si    2.7343993703    0.0120048781    2.7463024188
Si    8.2036921629    0.0005299641    2.7351318011
Si    2.7364254702    5.4671605423    2.7407858824
Si    8.1926349479    5.4698160075    2.7461890489
Si    5.4671602469    2.7364253171    2.7407859371
Si    0.0120051734    2.7343990093    2.7463023423
Si    5.4698156246    8.1926350792    2.7461892239
Si    0.0005303142    8.2036924910    2.7351316917
Si    4.0986095952    1.4030994507    4.1384997234
Si    9.5730319195    1.3717553225    4.1058624183
Si    4.1050140360    6.8011101622    4.1377138017
Si    9.5697223017    6.8328086756    4.1060158572
Si    6.8011102826    4.1050138172    4.1377136158
Si    1.4030993195    4.0986100218    4.1384995484
Si    6.8328079864    9.5697224986    4.1060160541
Si    1.3717559023    9.5730316789    4.1058625387
Si    0.0119009702    0.0119005764    5.4686470847
Si    5.4671066467    0.0052970708    5.4717174595
Si    0.0052968083    5.4671071390    5.4717172954
Si    2.8205968223    2.8205970849    5.5554516196
Si    8.1980377425    2.7364253936    5.4716639358
Si    2.7364256890    8.1980375237    5.4716641108
Si    8.1926345979    8.1926349698    5.4690085910
Si    1.4033089402    1.4033088964    6.8336676139
Si    6.8003237592    1.4030998664    6.8402146970
Si    1.4030999758    6.8003237045    6.8402147189
Si    6.8011099435    6.8011100747    6.8338101140
Si    5.3851668366    5.3851666397    5.5536569743
Si    9.5709460827    4.1016486739    6.8371754760
Si    4.1016486083    9.5709461264    6.8371754979
Si    9.5716360818    9.5716359615    6.8368168467
Si    2.7367324246    0.0059661003    8.2020917144
Si    8.1925213154    0.0120052500    8.2044247468
Si    2.8205976865    5.3833713270    8.1182270870
Si    8.1980380050    5.4671605204    8.2023986250
Si    5.3833717208    2.8205977631    8.1182273385
Si    0.0059658924    2.7367321292    8.2020918785
Si    5.4671600172    8.1980377534    8.2023985485
Si    0.0120057204    8.1925215780    8.2044246703
Si    4.1051563938    1.4033090277    9.5355151223
Si    9.5697964670    1.3716416681    9.5671820333
Si    4.0986097155    6.8003240327    9.5357244804
Si    9.5730321492    6.8329622348    9.5670683461
Si    6.8003242843    4.0986102077    9.5357247867
Si    1.4033089620    4.1051562188    9.5355151551
Si    6.8329616003    9.5730318320    9.5670681930
Si    1.3716422369    9.5697965873    9.5671817927
